  18
        -18.97813292
 C         -0.6519232151       -1.2040300626       -0.3953900610
 C         -1.5156134905        0.0001752645        0.0002252261
 C         -0.6515350058        1.2043721278        0.3951172876
 C          0.6519337562        1.2039395321       -0.3953830791
 C          1.5156465995       -0.0002116746        0.0001969938
 C          0.6515146929       -1.2042960975        0.3951875423
 H          0.4164355800       -1.1645231277        1.4604825217
 H          1.2021510966       -2.1296067256        0.2161968042
 H          2.1629450726       -0.2676084227       -0.8374215944
 H          2.1619922964        0.2673111982        0.8384913653
 H          1.2029061624        2.1290960142       -0.2164732082
 H          0.4171490790        1.1641905506       -1.4607574796
 H         -1.2022497887        2.1295996058        0.2157130257
 H         -0.4167232384        1.1652402493        1.4605075883
 H         -2.1620696116       -0.2672307473        0.8384563547
 H         -2.1627438193        0.2675831617       -0.8374739357
 H         -0.4171827326       -1.1642635724       -1.4607634804
 H         -1.2028882023       -2.1291814945       -0.2164087119
