 18
-18.968406 -18.986716 -18.978133
C 0.615934 1.273209 -0.357809
C -0.723254 1.215263 0.358628
C -1.509879 -0.007229 -0.094837
C -0.710108 -1.324579 -0.105629
C 0.821572 -1.258602 0.104513
C 1.504855 0.122754 0.095107
H 2.382176 0.077827 -0.553176
H 1.860055 0.349473 1.102903
H 1.050380 -1.735188 1.058584
H 1.282604 -1.872331 -0.670823
H -0.897041 -1.818111 -1.060209
H -1.116536 -1.976545 0.669041
H -2.379767 -0.128081 0.553754
H -1.883766 0.188764 -1.102316
H -1.305709 2.110629 0.129156
H -0.559741 1.190241 1.438317
H 1.119132 2.215285 -0.127862
H 0.455189 1.234734 -1.437518

