 18
-18.968333 -18.986716 -18.978133
C -1.198027 -0.770050 0.347161
C -0.016304 -1.422437 -0.351592
C 1.287359 -0.787212 0.113663
C 1.289325 0.754058 0.125457
C -0.046878 1.493830 -0.121078
C -1.351662 0.673367 -0.113785
H -1.767602 0.660785 -1.123696
H -2.079578 1.173281 0.528207
H -0.130485 2.273310 0.637643
H 0.021875 2.000205 -1.084677
H 1.995337 1.099518 -0.631137
H 1.680268 1.078498 1.090626
H 1.495763 -1.149265 1.122904
H 2.098791 -1.136472 -0.527847
H -0.130234 -1.322458 -1.433289
H 0.011041 -2.488773 -0.115465
H -1.054660 -0.816879 1.428966
H -2.115561 -1.312634 0.107736

