  18
        -18.97813293
 C         -1.5156717008        0.0002276110       -0.0001195885
 C         -0.6519478313       -1.2040378719        0.3952750796
 C          0.6516129499       -1.2043576799       -0.3951024742
 C          1.5156251392       -0.0001325847       -0.0001719696
 C          0.6519000401        1.2040584753        0.3953635597
 C         -0.6515183800        1.2042749789       -0.3952354583
 H         -0.4165657157        1.1646256307       -1.4605591193
 H         -1.2021872733        2.1295829939       -0.2161474337
 H          0.4170063119        1.1642987483        1.4607133616
 H          1.2028385562        2.1292480722        0.2164904217
 H          2.1620994494        0.2672952045       -0.8383629357
 H          2.1627219198       -0.2675243329        0.8375625735
 H          1.2023135737       -2.1295781962       -0.2156355779
 H          0.4168564610       -1.1651743940       -1.4605130666
 H         -1.2029131958       -2.1291808104        0.2161360210
 H         -0.4172076753       -1.1645305741        1.4606747772
 H         -2.1626145269        0.2676918558        0.8377371300
 H         -2.1623504712       -0.2671466042       -0.8382051749
