 18
-18.968332 -18.986716 -18.978133
C -1.509669 -0.001854 -0.112731
C -0.705893 -1.316951 -0.122717
C 0.820070 -1.248925 0.122794
C 1.503765 0.132431 0.112454
C 0.618119 1.282003 -0.349764
C -0.729873 1.221802 0.349966
H -1.310610 2.116252 0.112703
H -0.579793 1.197928 1.431611
H 1.116983 2.224496 -0.112210
H 0.470697 1.245250 -1.431421
H 2.385064 0.085452 -0.530228
H 1.852704 0.362293 1.121658
H 1.026629 -1.714740 1.087157
H 1.298246 -1.871263 -0.635017
H -0.870224 -1.799559 -1.086948
H -1.126831 -1.979122 0.635289
H -2.383626 -0.127020 0.529505
H -1.877149 0.196180 -1.122104

