  18
        -18.97813290
 C         -1.5156428805       -0.0015254873        0.0000566830
 C         -0.6530723375        1.2036305915        0.3951260504
 C          0.6504835417        1.2047357676       -0.3952454110
 C          1.5157115195        0.0015318263        0.0000863398
 C          0.6530479874       -1.2035686413        0.3951557324
 C         -0.6504991834       -1.2047887596       -0.3952312562
 H         -1.2003590852       -2.1304596882       -0.2159044743
 H         -0.4159606645       -1.1652409816       -1.4605880665
 H          1.2048755053       -2.1281550727        0.2159260031
 H          0.4181110187       -1.1643506693        1.4605169826
 H          2.1619620910        0.2696695662        0.8381618187
 H          2.1630020281       -0.2650866962       -0.8377540606
 H          0.4158001104        1.1648461866       -1.4606153507
 H          1.2003733738        2.1304676767       -0.2161415029
 H         -0.4182549264        1.1644458125        1.4604866002
 H         -1.2049283857        2.1281976524        0.2158872797
 H         -2.1630721508        0.2651021029       -0.8376571766
 H         -2.1618903001       -0.2696181847        0.8382999741
