 18
-18.968329 -18.986716 -18.978133
C -1.191507 -0.762284 0.358869
C -1.346644 0.684962 -0.089387
C -0.039220 1.500982 -0.109516
C 1.297732 0.754840 0.112461
C 1.290264 -0.786289 0.088988
C -0.022331 -1.413712 -0.361549
H 0.004694 -2.481769 -0.133266
H -0.151686 -1.305786 -1.440747
H 2.090823 -1.133336 -0.567210
H 1.512490 -1.156704 1.092225
H 1.703384 1.070588 1.074438
H 1.994191 1.103693 -0.651398
H 0.017500 2.014129 -1.070304
H -0.109174 2.275181 0.655960
H -2.063477 1.182683 0.566630
H -1.777117 0.681155 -1.093261
H -2.114300 -1.299941 0.128745
H -1.032799 -0.817500 1.438138

