18
 energy: -18.986715767696 gnorm: 0.000183911648 xtb: 6.3.2 (unknown-commit)
C        -1.41089647787293    0.32660399796947   -0.23363098908572
C        -0.98569899191813   -1.05824678149121    0.24565940211639
C         0.42275190545762   -1.38290508836428   -0.24343819328107
C         1.41166182722481   -0.32516319089802    0.23778584825022
C         0.98666395099899    1.05977526161973   -0.24146346828592
C        -0.42195545107587    1.38459643146638    0.24704016467911
H        -2.41257317877873    0.55757723179810    0.13576071970522
H        -1.44691672034451    0.33553112982092   -1.32566230639814
H        -1.68923392123521   -1.81068925438249   -0.11771393759679
H        -1.00350448428626   -1.08362656996985    1.33789439023123
H         0.42803012091683   -1.41191193052907   -1.33570600650485
H         0.72522266987157   -2.36808454223412    0.11860614468802
H         2.41350477339048   -0.55609510495610   -0.13120775228222
H         1.44718630514192   -0.33425356922951    1.32984069548665
H         1.00500887345432    1.08536616677796   -1.33367874296918
H         1.69005225280836    1.81211441017820    0.12237643429056
H        -0.72436741161385    2.36952478285689   -0.11576451295245
H        -0.42749604213941    1.41442661956700    1.33929210990893
