 18
-18.968305 -18.986716 -18.978133
C -1.121347 -0.981376 0.143855
C 0.322046 -1.455705 -0.142370
C 1.455171 -0.410909 -0.106078
C 1.031109 0.978777 0.351591
C -0.248826 1.399073 -0.352530
C -1.414412 0.531770 0.105483
H -2.266977 0.711130 -0.552386
H -1.704259 0.860105 1.105980
H -0.475562 2.441310 -0.116090
H -0.112457 1.324130 -1.433666
H 1.831687 1.683446 0.114763
H 0.877060 0.999646 1.432751
H 2.248894 -0.771488 0.551049
H 1.882037 -0.318883 -1.107149
H 0.333477 -1.928120 -1.125407
H 0.554840 -2.235038 0.584660
H -1.410151 -1.353556 1.127587
H -1.771268 -1.471987 -0.582116

