  18
        -18.97813292
 C         -0.6519703855       -1.2039635846       -0.3954127068
 C          0.6515313968       -1.2043393860        0.3950480872
 C          1.5157182824       -0.0001710680        0.0003590299
 C          0.6519674222        1.2039295129       -0.3953828773
 C         -0.6515812336        1.2044083534        0.3949963914
 C         -1.5156676896        0.0001365094        0.0003819654
 H         -2.1631092414        0.2674508339       -0.8371068582
 H         -2.1618095637       -0.2673993467        0.8388040821
 H         -0.4167289312        1.1653505781        1.4603922665
 H         -1.2023171979        2.1295724695        0.2153622569
 H          0.4171367369        1.1640090926       -1.4607254034
 H          1.2029326828        2.1291308024       -0.2166269469
 H          2.1619546097        0.2672960447        0.8387418796
 H          2.1630650507       -0.2675550627       -0.8371951693
 H          1.2022445381       -2.1295184627        0.2155226997
 H          0.4166638768       -1.1652507224        1.4604261745
 H         -1.2028974195       -2.1292191860       -0.2167153395
 H         -0.4171088357       -1.1638710572       -1.4607591587
