 18
-18.968303 -18.986716 -18.978133
C -1.336711 -0.497971 -0.330792
C -0.302350 -1.394105 0.330807
C 1.096715 -1.034403 -0.152701
C 1.410130 0.475080 -0.166952
C 0.269100 1.463571 0.166561
C -1.180181 0.937933 0.153154
H -1.788064 1.590383 -0.476638
H -1.586008 0.997090 1.165392
H 0.463974 1.883295 1.154258
H 0.338530 2.287283 -0.545340
H 1.797303 0.727379 -1.154932
H 2.215831 0.661679 0.544486
H 1.828961 -1.542526 0.477762
H 1.213720 -1.428231 -1.164648
H -0.501400 -2.437952 0.077193
H -0.373844 -1.294855 1.416219
H -2.341539 -0.843889 -0.077396
H -1.228121 -0.554285 -1.416197

