  18
        -18.98671585
 C          1.1841315246        0.8321150615        0.2416726797
 C         -0.1286199493        1.4415679563       -0.2416231913
 C         -1.3127844243        0.6093745257        0.2415901470
 C         -1.1841596937       -0.8322186790       -0.2416583937
 C          0.1286259806       -1.4414326839        0.2417291173
 C          1.3128161453       -0.6094047133       -0.2417283710
 H          1.3421175284       -0.6229917931       -1.3339587310
 H          2.2466624320       -1.0428394875        0.1232475797
 H          0.1314502631       -1.4736628204        1.3339934773
 H          0.2201075284       -2.4668477322       -0.1232546132
 H         -1.2106584712       -0.8509675338       -1.3338860437
 H         -2.0264336736       -1.4241565740        0.1234626051
 H         -1.3422683571        0.6231087758        1.3338387370
 H         -2.2465574910        1.0427747497       -0.1235449437
 H         -0.1314878316        1.4738751729       -1.3338390913
 H         -0.2200974270        2.4670022646        0.1234385792
 H          1.2105275817        0.8506462165        1.3339181798
 H          2.0265237145        1.4240412762       -0.1232010891
