  18
        -18.98671586
 C         -0.7020800592       -1.2656449302        0.2415158794
 C          0.7450466090       -1.2407311416       -0.2416035425
 C          1.4471583405        0.0248196683        0.2417166467
 C          0.7020356005        1.2655350876       -0.2417358523
 C         -0.7449874013        1.2408116210        0.2416513596
 C         -1.4471551022       -0.0247726700       -0.2415280296
 H         -1.4798682036       -0.0252910222       -1.3337318095
 H         -2.4763662010       -0.0424108615        0.1238287018
 H         -0.7615676089        1.2687023205        1.3338945596
 H         -1.2749755297        2.1234007481       -0.1234257797
 H          0.7176683762        1.2936251397       -1.3339496124
 H          1.2014704703        2.1658719503        0.1230138970
 H          1.4794026704        0.0254146714        1.3339083866
 H          2.4765322199        0.0424249029       -0.1231999847
 H          0.7617952238       -1.2684790279       -1.3338472525
 H          1.2750602275       -2.1233316483        0.1233660868
 H         -0.7179689744       -1.2942765673        1.3337345395
 H         -1.2013970213       -2.1658607606       -0.1237878999
