 18
-18.968307 -18.986716 -18.978133
C -1.219537 -0.886250 0.152761
C 0.205804 -1.473738 0.166768
C 1.388414 -0.535381 -0.166731
C 1.140227 0.986175 -0.152868
C -0.241935 1.405707 0.331017
C -1.313941 0.555191 -0.330853
H -1.202861 0.607004 -1.416231
H -2.302971 0.944076 -0.077517
H -0.317486 1.309175 1.416384
H -0.395857 2.457271 0.077845
H 1.273645 1.374341 -1.164964
H 1.893861 1.462535 0.477174
H 2.185175 -0.756329 0.544945
H 1.764596 -0.804341 -1.154571
H 0.239930 -2.299946 -0.544819
H 0.382165 -1.901095 1.154658
H -1.628027 -0.928187 1.164788
H -1.854604 -1.511788 -0.477521

