 18
-18.976200 -18.978133 -18.978133
C 0.684151 1.311397 0.203796
C -0.698349 1.157601 -0.424641
C -1.474405 0.008561 0.213526
C -0.681474 -1.311454 0.202106
C 0.700278 -1.156180 -0.428042
C 1.474782 -0.009149 0.213951
H 2.417945 0.120405 -0.321201
H 1.723701 -0.286626 1.239996
H 1.257560 -2.086043 -0.291770
H 0.602429 -0.991020 -1.502200
H -1.238628 -2.075534 -0.343337
H -0.558509 -1.674133 1.224880
H -1.722032 0.283937 1.240307
H -2.415058 -0.121115 -0.325223
H -0.606564 0.995232 -1.499995
H -1.258423 2.085771 -0.287010
H 0.558769 1.672952 1.226670
H 1.238468 2.076652 -0.342609

