 18
-18.968408 -18.986716 -18.978133
C -0.671762 -1.346725 0.157615
C 0.764017 -1.206633 -0.330019
C 1.428075 -0.009419 0.330105
C 0.786944 1.282750 -0.157846
C -0.754040 1.289150 -0.136840
C -1.492851 -0.042682 0.136932
H -2.272915 -0.142884 -0.619259
H -1.998889 0.045775 1.099139
H -1.081765 2.003916 0.619517
H -1.097147 1.671782 -1.098927
H 1.128336 1.461930 -1.179888
H 1.151424 2.110733 0.453371
H 1.343152 -0.096398 1.415606
H 2.490971 0.010817 0.078241
H 0.793094 -1.088635 -1.415523
H 1.309461 -2.119080 -0.077967
H -0.643301 -1.731570 1.179526
H -1.181219 -2.094002 -0.453958

