 18
-18.968330 -18.986716 -18.978133
C -1.438334 -0.457059 -0.113305
C -1.072348 1.040140 -0.123373
C 0.401949 1.439233 0.122834
C 1.473224 0.331098 0.113042
C 0.979175 -1.033385 -0.349175
C -0.323673 -1.385735 0.349946
H -0.188462 -1.317343 1.431655
H -0.604921 -2.414399 0.112570
H 0.828132 -1.043410 -1.430902
H 1.740820 -1.779573 -0.111068
H 1.875170 0.218348 1.122405
H 2.298755 0.643693 -0.529386
H 0.668664 2.177449 -0.634879
H 0.456663 1.945830 1.087206
H -1.675045 1.543154 0.634236
H -1.375101 1.449782 -1.087839
H -1.727848 -0.757564 -1.122741
H -2.309228 -0.603382 0.528621

