 18
-18.968304 -18.986716 -18.978133
C -1.257064 -0.832181 -0.152741
C -1.308449 0.708630 -0.166953
C -0.015560 1.487985 0.166694
C 1.322894 0.722955 0.152849
C 1.232161 -0.718700 -0.330820
C 0.060127 -1.425163 0.330923
H 0.147476 -1.339339 1.416304
H 0.078237 -2.487727 0.077519
H 1.115506 -0.755863 -1.416202
H 2.163278 -1.230907 -0.077384
H 1.733277 0.712253 1.164912
H 2.032846 1.262106 -0.477342
H 0.056382 2.311724 -0.544919
H -0.135913 1.934445 1.154551
H -2.070552 1.029880 0.544473
H -1.646877 1.023319 -1.154944
H -1.439368 -1.200279 -1.164710
H -2.065307 -1.208001 0.477606

